!20150726 1149 
!	Made AHU4 thermostat the master for VRF system so AHU4 would still cool while other zones are off for thermal response analysis
!20150726 1323 
!	Removed Carpet from Floor Construction to see effect of thermal mass
!20150726 1424 
!	Added more internal mass for interior walls and drop ceiling
!20150726 2115 
!	Added insulation under slab (HialeahGroundInsulation)
!20150727 1449 
!	Added schedule for actual temps to make output easy for octave to read (HialeahAHU1TempActual)
!20150727 1704 
!	Removed the following variables for GenOpt
	! 1
	! 0.2832
	! 17.8
	! FullInteriorAndExteriorWithReflections
	! 0.1
!20150727 1704 
!	Changed reference to load schedule files for GenOpt ..\LoadScheduleFiles\HialeahActualTemps.csv

!-Generator IDFEditor 1.44
!-Option SortedOrder ViewInIPunits

!-NOTE: All comments with !- are ignored by the IDFEditor and are generated automatically.
!-      Use ! comments if they need to be retained when using the IDFEditor.


!-   ===========  ALL OBJECTS IN CLASS: VERSION ===========

  Version,8.3;



!-   ===========  ALL OBJECTS IN CLASS: SIMULATIONCONTROL ===========

SimulationControl,
    Yes,                     !- Do Zone Sizing Calculation
    Yes,                     !- Do System Sizing Calculation
    Yes,                      !- Do Plant Sizing Calculation
    No,                      !- Run Simulation for Sizing Periods
    Yes;                     !- Run Simulation for Weather File Run Periods


!-   ===========  ALL OBJECTS IN CLASS: BUILDING ===========

Building,
    Building 1,              !- Name
    45,                      !- North Axis {deg}
    ,                        !- Terrain
    ,                        !- Loads Convergence Tolerance Value
    ,                        !- Temperature Convergence Tolerance Value {deltaC}
    FullInteriorAndExteriorWithReflections,                        !- Solar Distribution
    ,                        !- Maximum Number of Warmup Days
    ;                        !- Minimum Number of Warmup Days


!-   ===========  ALL OBJECTS IN CLASS: SHADOWCALCULATION ===========

ShadowCalculation,
    AverageOverDaysInFrequency,  !- Calculation Method
    20,                       !- Calculation Frequency %%20150619%%
    15000;                   !- Maximum Figures in Shadow Overlap Calculations


!-   ===========  ALL OBJECTS IN CLASS: SURFACECONVECTIONALGORITHM:INSIDE ===========

SurfaceConvectionAlgorithm:Inside,
    TARP;                    !- Algorithm


!-   ===========  ALL OBJECTS IN CLASS: SURFACECONVECTIONALGORITHM:OUTSIDE ===========

SurfaceConvectionAlgorithm:Outside,
    DOE-2;                   !- Algorithm


!-   ===========  ALL OBJECTS IN CLASS: HEATBALANCEALGORITHM ===========

HeatBalanceAlgorithm,
    ConductionTransferFunction,  !- Algorithm
    200;                     !- Surface Temperature Upper Limit {C}


!-   ===========  ALL OBJECTS IN CLASS: ZONEAIRHEATBALANCEALGORITHM ===========

ZoneAirHeatBalanceAlgorithm,
    AnalyticalSolution;      !- Algorithm


!-   ===========  ALL OBJECTS IN CLASS: TIMESTEP ===========

Timestep,
    6;                       !- Number of Timesteps per Hour


!-   ===========  ALL OBJECTS IN CLASS: CONVERGENCELIMITS ===========

ConvergenceLimits,
    1;                       !- Minimum System Timestep {minutes}


!-   ===========  ALL OBJECTS IN CLASS: PROGRAMCONTROL ===========

ProgramControl,
    1;                       !- Number of Threads Allowed


!-   ===========  ALL OBJECTS IN CLASS: SITE:LOCATION ===========

Site:Location,
    Site 1,                  !- Name
    25.82,                   !- Latitude {deg}
    -80.3,                   !- Longitude {deg}
    -5,                      !- Time Zone {hr}
    11;                      !- Elevation {m}


! !-   ===========  ALL OBJECTS IN CLASS: SIZINGPERIOD:DESIGNDAY ===========

SizingPeriod:DesignDay,
    Miami Intl Ap Ann Clg .4% Condns DB=>MWB,  !- Name
    7,                       !- Month
    21,                      !- Day of Month
    SummerDesignDay,         !- Day Type
    33.2,                    !- Maximum Dry-Bulb Temperature {C}
    6.7,                     !- Daily Dry-Bulb Temperature Range {deltaC}
    DefaultMultipliers,      !- Dry-Bulb Temperature Range Modifier Type
    ,                        !- Dry-Bulb Temperature Range Modifier Day Schedule Name
    Wetbulb,                 !- Humidity Condition Type
    25.3,                    !- Wetbulb or DewPoint at Maximum Dry-Bulb {C}
    ,                        !- Humidity Condition Day Schedule Name
    ,                        !- Humidity Ratio at Maximum Dry-Bulb {kgWater/kgDryAir}
    ,                        !- Enthalpy at Maximum Dry-Bulb {J/kg}
    ,                        !- Daily Wet-Bulb Temperature Range {deltaC}
    101193,                  !- Barometric Pressure {Pa}
    4.5,                     !- Wind Speed {m/s}
    140,                     !- Wind Direction {deg}
    No,                      !- Rain Indicator
    No,                      !- Snow Indicator
    No,                      !- Daylight Saving Time Indicator
    ASHRAETau,               !- Solar Model Indicator
    ,                        !- Beam Solar Day Schedule Name
    ,                        !- Diffuse Solar Day Schedule Name
    0.528,                   !- ASHRAE Clear Sky Optical Depth for Beam Irradiance (taub) {dimensionless}
    1.905;                   !- ASHRAE Clear Sky Optical Depth for Diffuse Irradiance (taud) {dimensionless}

SizingPeriod:DesignDay,
    Miami Intl Ap Ann Htg 99.6% Condns DB,  !- Name
    1,                       !- Month
    21,                      !- Day of Month
    WinterDesignDay,         !- Day Type
    8.7,                     !- Maximum Dry-Bulb Temperature {C}
    0,                       !- Daily Dry-Bulb Temperature Range {deltaC}
    DefaultMultipliers,      !- Dry-Bulb Temperature Range Modifier Type
    ,                        !- Dry-Bulb Temperature Range Modifier Day Schedule Name
    Wetbulb,                 !- Humidity Condition Type
    8.7,                     !- Wetbulb or DewPoint at Maximum Dry-Bulb {C}
    ,                        !- Humidity Condition Day Schedule Name
    ,                        !- Humidity Ratio at Maximum Dry-Bulb {kgWater/kgDryAir}
    ,                        !- Enthalpy at Maximum Dry-Bulb {J/kg}
    ,                        !- Daily Wet-Bulb Temperature Range {deltaC}
    101193,                  !- Barometric Pressure {Pa}
    3.8,                     !- Wind Speed {m/s}
    340,                     !- Wind Direction {deg}
    No,                      !- Rain Indicator
    No,                      !- Snow Indicator
    No,                      !- Daylight Saving Time Indicator
    ASHRAEClearSky,          !- Solar Model Indicator
    ,                        !- Beam Solar Day Schedule Name
    ,                        !- Diffuse Solar Day Schedule Name
    ,                        !- ASHRAE Clear Sky Optical Depth for Beam Irradiance (taub) {dimensionless}
    ,                        !- ASHRAE Clear Sky Optical Depth for Diffuse Irradiance (taud) {dimensionless}
    0;                       !- Sky Clearness


! SizingPeriod:WeatherFileConditionType,
	! Extreme Summer Weather Period for Design, !- Name
	! SummerExtreme, !- Period Selection
	! SummerDesignDay, !- Day Type
	! No, !- Use Weather File Daylight Saving Period
	! No; !- Use Weather File Rain and Snow Indicators

! SizingPeriod:WeatherFileConditionType,
	! Extreme Winter Weather Period for Design, !- Name
	! WinterExtreme, !- Period Selection
	! WinterDesignDay, !- Day Type
	! No, !- Use Weather File Daylight Saving Period
	! No; !- Use Weather File Rain and Snow Indicators	

!-   ===========  ALL OBJECTS IN CLASS: RUNPERIOD ===========

! RunPeriod,
    ! Run Period 1,            !- Name
    ! 7,                       !- Begin Month
    ! 18,                       !- Begin Day of Month
    ! 7,                      !- End Month
    ! 21,                      !- End Day of Month
    ! Saturday,                  !- Day of Week for Start Day
    ! No,                      !- Use Weather File Holidays and Special Days
    ! No,                      !- Use Weather File Daylight Saving Period
    ! No,                      !- Apply Weekend Holiday Rule
    ! Yes,                     !- Use Weather File Rain Indicators
    ! Yes,                     !- Use Weather File Snow Indicators
    ! 1;                       !- Number of Times Runperiod to be Repeated
RunPeriod,
    Run Period 1,            !- Name
    1,                       !- Begin Month
    1,                       !- Begin Day of Month
    6,                      !- End Month
    30,                      !- End Day of Month
    Thursday,                  !- Day of Week for Start Day
    No,                      !- Use Weather File Holidays and Special Days
    No,                      !- Use Weather File Daylight Saving Period
    No,                      !- Apply Weekend Holiday Rule
    Yes,                     !- Use Weather File Rain Indicators
    Yes,                     !- Use Weather File Snow Indicators
    1;                       !- Number of Times Runperiod to be Repeated


!-   ===========  ALL OBJECTS IN CLASS: SCHEDULETYPELIMITS ===========

ScheduleTypeLimits,
    AHU1 Thermostat Schedule Type Limits,  !- Name
    0,                       !- Lower Limit Value
    4,                       !- Upper Limit Value
    DISCRETE;                !- Numeric Type

ScheduleTypeLimits,
    Temperature 36,          !- Name
    ,                        !- Lower Limit Value
    ,                        !- Upper Limit Value
    Continuous,              !- Numeric Type
    temperature;             !- Unit Type

ScheduleTypeLimits,
    Temperature 37,          !- Name
    ,                        !- Lower Limit Value
    ,                        !- Upper Limit Value
    Continuous,              !- Numeric Type
    temperature;             !- Unit Type

ScheduleTypeLimits,
    AHU2 Thermostat Schedule Type Limits,  !- Name
    0,                       !- Lower Limit Value
    4,                       !- Upper Limit Value
    DISCRETE;                !- Numeric Type

ScheduleTypeLimits,
    AHU3 Thermostat Schedule Type Limits,  !- Name
    0,                       !- Lower Limit Value
    4,                       !- Upper Limit Value
    DISCRETE;                !- Numeric Type

ScheduleTypeLimits,
    AHU4 Thermostat Schedule Type Limits,  !- Name
    0,                       !- Lower Limit Value
    4,                       !- Upper Limit Value
    DISCRETE;                !- Numeric Type

ScheduleTypeLimits,
    ActivityLevel 13,        !- Name
    0,                       !- Lower Limit Value
    ,                        !- Upper Limit Value
    Continuous,              !- Numeric Type
    activitylevel;           !- Unit Type

ScheduleTypeLimits,
    Fraction,                !- Name
    0,                       !- Lower Limit Value
    1,                       !- Upper Limit Value
    CONTINUOUS;              !- Numeric Type

ScheduleTypeLimits,
    HVACTemplate Any Number; !- Name

! Not limited
ScheduleTypeLimits,
    Any Number;              !- Name

ScheduleTypeLimits,
    Always Dual Setpoint - 4,!- Name
    0,                       !- Lower Limit Value
    4,                       !- Upper Limit Value
    DISCRETE;                !- Numeric Type

ScheduleTypeLimits,
    Temperature,             !- Name
    -60,                     !- Lower Limit Value
    200,                     !- Upper Limit Value
    CONTINUOUS,              !- Numeric Type
    Temperature;             !- Unit Type


!-   ===========  ALL OBJECTS IN CLASS: SCHEDULE:COMPACT ===========

Schedule:Compact,
    AHU1 Thermostat Schedule,!- Name
    AHU1 Thermostat Schedule Type Limits,  !- Schedule Type Limits Name
    Through: 12/31,          !- Field 1
    For: AllDays,            !- Field 2
    Until: 24:00,            !- Field 3
    4;                       !- Field 4

Schedule:Compact,
    AHU2 Thermostat Schedule,!- Name
    AHU2 Thermostat Schedule Type Limits,  !- Schedule Type Limits Name
    Through: 12/31,          !- Field 1
    For: AllDays,            !- Field 2
    Until: 24:00,            !- Field 3
    4;                       !- Field 4

Schedule:Compact,
    AHU3 Thermostat Schedule,!- Name
    AHU3 Thermostat Schedule Type Limits,  !- Schedule Type Limits Name
    Through: 12/31,          !- Field 1
    For: AllDays,            !- Field 2
    Until: 24:00,            !- Field 3
    4;                       !- Field 4

Schedule:Compact,
    AHU4 Thermostat Schedule,!- Name
    AHU4 Thermostat Schedule Type Limits,  !- Schedule Type Limits Name
    Through: 12/31,          !- Field 1
    For: AllDays,            !- Field 2
    Until: 24:00,            !- Field 3
    4;                       !- Field 4

! Schedule Office Occupancy, ASHRAE 90.1-1989, Section 13
!  Equivalent Full-Load Hours: Weekdays 9.2, Saturday 2, Sunday/Holidays 0.6
Schedule:Compact,
    Hialeah_Occupancy,       !- Name
    Fraction,                !- Schedule Type Limits Name
    Through: 3/8,          
		For: Weekdays SummerDesignDay,
			Until: 06:00,0.0,
			Until: 07:00,0.2,
			Until: 09:00,0.5,
			Until: 12:00,0.75,
			Until: 14:00,1,
			Until: 17:00,0.75,
			Until: 18:00,1,
			Until: 19:00,0.2,
			Until: 24:00,0,
		For: Saturday,
			Until: 06:00,0.0 ,
			Until: 07:00,0.2 ,
			Until: 09:00,0.5 ,
			Until: 12:00,0.75,
			Until: 14:00,1   ,
			Until: 16:00,0.75,
			Until: 17:00,0.5 ,
			Until: 24:00,0   ,
		For: Sunday Holidays WinterDesignDay AllOtherDays,
			Until: 24:00,0.0,
	Through: 11/1                                        ,
		For: Weekdays SummerDesignDay                    ,
			Until: 05:00                                 ,0.0 ,
			Until: 06:00                                 ,0.2 ,
			Until: 08:00                                 ,0.5 ,
			Until: 11:00                                 ,0.75,
			Until: 13:00                                 ,1   ,
			Until: 16:00                                 ,0.75,
			Until: 17:00                                 ,1   ,
			Until: 18:00                                 ,0.2 ,
			Until: 24:00                                 ,0   ,
		For: Saturday                                    ,
			Until: 05:00                                 ,0.0 ,
			Until: 06:00                                 ,0.2 ,
			Until: 08:00                                 ,0.5 ,
			Until: 11:00                                 ,0.75,
			Until: 13:00                                 ,1   ,
			Until: 15:00                                 ,0.75,
			Until: 16:00                                 ,0.5 ,
			Until: 24:00                                 ,0   ,
		For: Sunday Holidays WinterDesignDay AllOtherDays,
			Until: 24:00                                 ,0.0 ,
	Through: 12/31                                       ,
		For: Weekdays SummerDesignDay                    ,
			Until: 06:00                                 ,0.0 ,
			Until: 07:00                                 ,0.2 ,
			Until: 09:00                                 ,0.5 ,
			Until: 12:00                                 ,0.75,
			Until: 14:00                                 ,1   ,
			Until: 17:00                                 ,0.75,
			Until: 18:00                                 ,1   ,
			Until: 19:00                                 ,0.2 ,
			Until: 24:00                                 ,0   ,
		For: Saturday                                    ,
			Until: 06:00                                 ,0.0 ,
			Until: 07:00                                 ,0.2 ,
			Until: 09:00                                 ,0.5 ,
			Until: 12:00                                 ,0.75,
			Until: 14:00                                 ,1   ,
			Until: 16:00                                 ,0.75,
			Until: 17:00                                 ,0.5 ,
			Until: 24:00                                 ,0   ,
		For: Sunday Holidays WinterDesignDay AllOtherDays,
			Until: 24:00                                 ,0.0;
	

Schedule:Compact,
    Hialeah HtgSetp,         !- Name
    Any Number,              !- Schedule Type Limits Name
    Through: 12/31,          !- Field 1
    For: Weekdays SummerDesignDay,  !- Field 2
    Until: 07:00,            !- Field 3
    18.33,                   !- Field 4
    Until: 19:00,            !- Field 5
    19.44,                   !- Field 6
    Until: 24:00,            !- Field 7
    18.33,                   !- Field 8
    For: Saturday,           !- Field 9
    Until: 08:00,            !- Field 10
    18.33,                   !- Field 11
    Until: 17:00,            !- Field 12
    19.44,                   !- Field 13
    Until: 24:00,            !- Field 14
    18.33,                   !- Field 15
    For: Sunday Holidays WinterDesignDay AllOtherDays,  !- Field 16
    Until: 24:00,            !- Field 17
    18.33;                   !- Field 18


Schedule:Compact,
    Hialeah HtgSetp Electrical,  !- Name
    Any Number,              !- Schedule Type Limits Name
    Through: 3/25,           !- Field 1
    For: Weekdays SummerDesignDay,  !- Field 2
    Until: 07:00,            !- Field 3
    18.33,                   !- Field 4
    Until: 19:00,            !- Field 5
    19.44,                   !- Field 6
    Until: 24:00,            !- Field 7
    18.33,                   !- Field 8
    For: Saturday,           !- Field 9
    Until: 08:00,            !- Field 10
    18.33,                   !- Field 11
    Until: 17:00,            !- Field 12
    19.44,                   !- Field 13
    Until: 24:00,            !- Field 14
    18.33,                   !- Field 15
    For: Sunday Holidays WinterDesignDay AllOtherDays,  !- Field 16
    Until: 24:00,            !- Field 17
    18.33,                   !- Field 18
    Through: 12/31,          !- Field 19
    For: AllOtherDays,       !- Field 20
    Until: 24:00,            !- Field 21
    18.33;                   !- Field 22

Schedule:Compact,
    Hialeah ClgSetp Electrical,  !- Name
    Any Number,              !- Schedule Type Limits Name
    Through: 3/25,           !- Field 1
    For: Weekdays SummerDesignDay,  !- Field 2
    Until: 07:00,            !- Field 3
    25.56,                   !- Field 4
    Until: 19:00,            !- Field 5
    22.22,                   !- Field 6
    Until: 24:00,            !- Field 7
    25.56,                   !- Field 8
    For: Saturday,           !- Field 9
    Until: 08:00,            !- Field 10
    25.56,                   !- Field 11
    Until: 17:00,            !- Field 12
    22.22,                   !- Field 13
    Until: 24:00,            !- Field 14
    25.56,                   !- Field 15
    For: Sunday Holidays WinterDesignDay AllOtherDays,  !- Field 16
    Until: 24:00,            !- Field 17
    25.56,                   !- Field 18
    Through: 12/31,          !- Field 19
    For: AllOtherDays,       !- Field 20
    Until: 24:00,            !- Field 21
    25.56;                   !- Field 22

Schedule:Compact,
    Hialeah Thermostat Schedule Type,  !- Name
    Always Dual Setpoint - 4,!- Schedule Type Limits Name
    Through: 12/31,          !- Field 1
    For: AllDays,            !- Field 2
    Until: 24:00,            !- Field 3
    4;                       !- Field 4
!ThermalResponse DOAS ON/OFF
!#####################################################
! Schedule:Compact,
    ! DOAS_Operation_Schedule,  !- Name
    ! Any Number,!- Schedule Type Limits Name
    ! Through: 12/31,          !- Field 1
    ! For: AllDays,            !- Field 2
    ! Until: 24:00,            !- Field 3
    ! 0;                       !- Field 4	

!THE BELOW DOAS SCHEDULE FORCES DOAS ON ON SUNDAYS
!PURPOSE: TO MATCH THERMAL RESPONSE TEST ON 7/19/2015	
!#####################################################
Schedule:Compact,
	DOAS_Operation_Schedule                              , 
	Any Number                                           , 
	Through: 3/8                                         , 
		For: Weekdays Sunday SummerDesignDay                    , 
			Until: 08:00                                 ,0, 
			Until: 18:00                                 ,1, 
			Until: 24:00                                 ,0, 
		For: Saturday                                    , 
			Until: 08:00                                 ,0, 
			Until: 15:00                                 ,1, 
			Until: 24:00                                 ,0, 
		For: Holidays WinterDesignDay AllOtherDays, 
			Until: 24:00                                 ,0,
	Through: 11/1                                        , 
		For: Weekdays Sunday SummerDesignDay                    , 
			Until: 07:00                                 ,0, 
			Until: 17:00                                 ,1, 
			Until: 24:00                                 ,0, 
		For: Saturday                                    , 
			Until: 07:00                                 ,0, 
			Until: 14:00                                 ,1, 
			Until: 24:00                                 ,0, 
		For:Holidays WinterDesignDay AllOtherDays, 
			Until: 24:00                                 ,0,
	Through: 12/31                                       , 
		For: Weekdays Sunday SummerDesignDay             , 
			Until: 08:00                                 ,0, 
			Until: 18:00                                 ,1, 
			Until: 24:00                                 ,0, 
		For: Saturday                                    , 
			Until: 08:00                                 ,0, 
			Until: 15:00                                 ,1, 
			Until: 24:00                                 ,0, 
		For: Holidays WinterDesignDay AllOtherDays, 
			Until: 24:00                                 ,0;

!THIS IS THE NORMAL SCHEDULE FOR THE DOAS
! Schedule:Compact,
	! DOAS_Operation_Schedule                              , 
	! Any Number                                           , 
	! Through: 3/8                                         , 
		! For: Weekdays SummerDesignDay                    , 
			! Until: 08:00                                 ,0, 
			! Until: 18:00                                 ,1, 
			! Until: 24:00                                 ,0, 
		! For: Saturday                                    , 
			! Until: 08:00                                 ,0, 
			! Until: 15:00                                 ,1, 
			! Until: 24:00                                 ,0, 
		! For: Sunday Holidays WinterDesignDay AllOtherDays, 
			! Until: 24:00                                 ,0,
	! Through: 11/1                                        , 
		! For: Weekdays Sunday SummerDesignDay                    , 
			! Until: 07:00                                 ,0, 
			! Until: 17:00                                 ,1, 
			! Until: 24:00                                 ,0, 
		! For: Saturday                                    , 
			! Until: 07:00                                 ,0, 
			! Until: 14:00                                 ,1, 
			! Until: 24:00                                 ,0, 
		! For: Sunday Holidays WinterDesignDay AllOtherDays, 
			! Until: 24:00                                 ,0,
	! Through: 12/31                                       , 
		! For: Weekdays SummerDesignDay                    , 
			! Until: 08:00                                 ,0, 
			! Until: 18:00                                 ,1, 
			! Until: 24:00                                 ,0, 
		! For: Saturday                                    , 
			! Until: 08:00                                 ,0, 
			! Until: 15:00                                 ,1, 
			! Until: 24:00                                 ,0, 
		! For: Sunday Holidays WinterDesignDay AllOtherDays, 
			! Until: 24:00                                 ,0;				

! ThermalResponse			
Schedule:Compact,
    Infiltration_Schedule, !- Name %%20150625%% CREATED TO MODIFY INFILTRATION BY TIME
    Any Number,              
	Through: 3/8                                       ,          
		For: Weekdays SummerDesignDay                    ,  
			Until: 08:00                                 ,0.1,!# !ThermalResponse Infiltration BaseMult
			Until: 18:00                                 ,1,!! !ThermalResponse Infiltration OccMult        
			Until: 24:00                                 ,0.1,!# !ThermalResponse Infiltration BaseMult      
		For: Saturday                                    ,   
			Until: 08:00                                 ,0.1,!# !ThermalResponse Infiltration BaseMult      
			Until: 15:00                                 ,1,!! !ThermalResponse Infiltration OccMult       
			Until: 24:00                                 ,0.1,!# !ThermalResponse Infiltration BaseMult      
		For: Sunday Holidays WinterDesignDay AllOtherDays,  
			Until: 24:00                                 ,0.1,!# !ThermalResponse Infiltration BaseMult      
	Through: 11/1                                       ,    
		For: Weekdays SummerDesignDay                    ,  
			Until: 07:00                                 ,0.1,!# !ThermalResponse Infiltration BaseMult      
			Until: 17:00                                 ,1,!! !ThermalResponse Infiltration OccMult        
			Until: 24:00                                 ,0.1,!# !ThermalResponse Infiltration BaseMult      
		For: Saturday                                    ,   
			Until: 07:00                                 ,0.1,!# !ThermalResponse Infiltration BaseMult      
			Until: 14:00                                 ,1,!! !ThermalResponse Infiltration OccMult        
			Until: 24:00                                 ,0.1,!# !ThermalResponse Infiltration BaseMult      
		For: Sunday Holidays WinterDesignDay AllOtherDays,  
			Until: 24:00                                 ,0.1,!# !ThermalResponse Infiltration BaseMult
	Through: 12/31                                       ,   
		For: Weekdays SummerDesignDay                    ,  
			Until: 08:00                                 ,0.1,!# !ThermalResponse Infiltration BaseMult      
			Until: 18:00                                 ,1,!! !ThermalResponse Infiltration OccMult        
			Until: 24:00                                 ,0.1,!# !ThermalResponse Infiltration BaseMult      
		For: Saturday                                    ,   
			Until: 08:00                                 ,0.1,!# !ThermalResponse Infiltration BaseMult      
			Until: 15:00                                 ,1,!! !ThermalResponse Infiltration OccMult        
			Until: 24:00                                 ,0.1,!# !ThermalResponse Infiltration BaseMult       
		For: Sunday Holidays WinterDesignDay AllOtherDays,  
			Until: 24:00                                 ,0.1;!# 
			
! Schedule:Compact,
    ! Infiltration_Schedule, !- Name %%20150625%% CREATED TO MODIFY INFILTRATION BY TIME
    ! Any Number,              
	! Through: 12/31                                       ,          
		! For: AllDays                    				 ,  
			! Until: 24:00                                 ,0; 

!-   ===========  ALL OBJECTS IN CLASS: SCHEDULE:CONSTANT ===========

Schedule:Constant,
    Always_On,               !- Name
    Any Number,              !- Schedule Type Limits Name
    1;                       !- Hourly Value

Schedule:Constant,
    Always_0.75,             !- Name
    Any Number,              !- Schedule Type Limits Name
    0.75;                    !- Hourly Value

Schedule:Constant,
    Always_1.25,             !- Name
    Any Number,              !- Schedule Type Limits Name
    1.25;                    !- Hourly Value


!-   ===========  ALL OBJECTS IN CLASS: SCHEDULE:FILE ===========
Schedule:File,
    HialeahAHU1TempActual,         !- Name 
    Any Number,              !- Schedule Type Limits Name
    ..\LoadScheduleFiles\HialeahActualTemps.csv,  !- File Name
    2,                       !- Column Number
    0,                       !- Rows to Skip at Top
    8760,                    !- Number of Hours of Data
    Comma;                   !- Column Separator!%%20150721%%

Schedule:File,
    HialeahAHU2TempActual,         !- Name 
    Any Number,              !- Schedule Type Limits Name
    ..\LoadScheduleFiles\HialeahActualTemps.csv,  !- File Name
    3,                       !- Column Number
    0,                       !- Rows to Skip at Top
    8760,                    !- Number of Hours of Data
    Comma;                   !- Column Separator!%%20150721%%

Schedule:File,
    HialeahAHU3TempActual,         !- Name 
    Any Number,              !- Schedule Type Limits Name
    ..\LoadScheduleFiles\HialeahActualTemps.csv,  !- File Name
    4,                       !- Column Number
    0,                       !- Rows to Skip at Top
    8760,                    !- Number of Hours of Data
    Comma;                   !- Column Separator


!%%20150721%%
Schedule:File,
    Hialeah ClgSetp,         !- Name 
    Any Number,              !- Schedule Type Limits Name
    ..\LoadScheduleFiles\20150721_ThermostatSchedules.csv,  !- File Name
    9,                       !- Column Number
    2,                       !- Rows to Skip at Top
    8760,                    !- Number of Hours of Data
    Comma;                   !- Column Separator

Schedule:File,
    ViewGlass_Schedule_NW,  !- Name
    Any Number,              !- Schedule Type Limits Name
    ..\LoadScheduleFiles\20150722_ViewGlassSchedules.csv,  !- File Name
    6,                       !- Column Number
    2,                       !- Rows to Skip at Top
    8760,                    !- Number of Hours of Data
    Comma;                   !- Column Separator
	
Schedule:File,
    ViewGlass_Schedule_NE,  !- Name
    Any Number,              !- Schedule Type Limits Name
    ..\LoadScheduleFiles\20150722_ViewGlassSchedules.csv,  !- File Name
    7,                       !- Column Number
    2,                       !- Rows to Skip at Top
    8760,                    !- Number of Hours of Data
    Comma;                   !- Column Separator
	
Schedule:File,
    ViewGlass_Schedule_SE,  !- Name